REMARK  9 active torsions:
REMARK  status: ('A' for Active; 'I' for Inactive)
REMARK    1  A    between atoms: C_1  and  O_11 
REMARK    2  A    between atoms: C_8  and  C_14 
REMARK    3  A    between atoms: C_9  and  C_13 
REMARK    4  A    between atoms: C_17  and  O_20 
REMARK    5  A    between atoms: C_21  and  O_20 
REMARK    6  A    between atoms: C_21  and  C_22 
REMARK    7  A    between atoms: C_22  and  N_23 
REMARK    8  A    between atoms: C_25  and  C_27 
REMARK    9  A    between atoms: C_30  and  O_34 
ROOT
HETATM    1  C           1      40.739   0.191  16.013  0.00  0.00     0.066 A 
HETATM    2  C           1      40.164   0.391  17.206  0.00  0.00     0.039 A 
HETATM    3  C           1      40.234  -0.560  18.143  0.00  0.00     0.040 A 
HETATM    4  C           1      40.866  -1.732  17.942  0.00  0.00     0.081 A 
HETATM    5  C           1      41.454  -1.959  16.750  0.00  0.00     0.006 A 
HETATM    6  C           1      41.371  -0.979  15.823  0.00  0.00     0.051 A 
HETATM    7  O           1      40.855  -2.622  18.969  0.00  0.00    -0.336 OA
HETATM    8  C           1      41.558  -3.836  18.814  0.00  0.00     0.196 A 
HETATM    9  C           1      42.277  -4.045  17.481  0.00  0.00    -0.007 A 
HETATM   10  C           1      42.107  -3.120  16.503  0.00  0.00    -0.039 A 
HETATM   11  C           1      42.517  -3.411  15.061  0.00  0.00     0.050 C 
ENDROOT
BRANCH   1  12
HETATM   12  O           1      40.690   1.148  15.046  0.00  0.00    -0.361 OA
HETATM   13  H           1      40.203   1.916  15.386  0.00  0.00     0.217 HD
ENDBRANCH   1  12
BRANCH   9  14
HETATM   14  C           1      43.057  -5.155  17.371  0.00  0.00    -0.024 A 
HETATM   15  C           1      42.835  -6.265  18.107  0.00  0.00     0.048 A 
HETATM   16  C           1      43.583  -7.383  18.055  0.00  0.00     0.066 A 
HETATM   17  C           1      44.639  -7.395  17.228  0.00  0.00     0.036 A 
HETATM   18  C           1      44.926  -6.310  16.499  0.00  0.00     0.004 A 
HETATM   19  C           1      44.151  -5.218  16.583  0.00  0.00     0.012 A 
BRANCH  16  20
HETATM   20  O           1      43.282  -8.473  18.811  0.00  0.00    -0.361 OA
HETATM   21  H           1      43.923  -9.177  18.622  0.00  0.00     0.217 HD
ENDBRANCH  16  20
ENDBRANCH   9  14
BRANCH   8  22
HETATM   22  C           1      42.566  -3.904  19.955  0.00  0.00    -0.024 A 
HETATM   23  C           1      43.621  -3.072  19.981  0.00  0.00     0.013 A 
HETATM   24  C           1      44.511  -3.118  20.985  0.00  0.00     0.037 A 
HETATM   25  C           1      44.397  -3.977  22.016  0.00  0.00     0.068 A 
HETATM   26  C           1      43.344  -4.818  21.963  0.00  0.00     0.037 A 
HETATM   27  C           1      42.440  -4.771  20.973  0.00  0.00     0.013 A 
BRANCH  25  28
HETATM   28  O           1      45.368  -3.988  22.990  0.00  0.00    -0.349 OA
BRANCH  28  29
HETATM   29  C           1      45.609  -5.194  23.668  0.00  0.00     0.206 C 
BRANCH  29  30
HETATM   30  C           1      46.808  -5.018  24.603  0.00  0.00     0.299 C 
BRANCH  30  31
HETATM   31  N           1      47.284  -6.297  25.084  0.00  0.00     0.091 N 
HETATM   32  C           1      46.353  -7.083  25.889  0.00  0.00     0.281 C 
HETATM   33  C           1      47.636  -7.604  26.599  0.00  0.00     0.071 C 
HETATM   34  C           1      48.276  -6.255  26.158  0.00  0.00     0.281 C 
BRANCH  33  35
HETATM   35  C           1      47.520  -7.850  28.079  0.00  0.00     0.230 C 
HETATM   36  F           1      48.744  -8.068  28.607  0.00  0.00    -0.255 F 
ENDBRANCH  33  35
ENDBRANCH  30  31
ENDBRANCH  29  30
ENDBRANCH  28  29
ENDBRANCH  25  28
ENDBRANCH   8  22
TORSDOF 9
